# created with PyMOL 3.0.4
@<TRIPOS>MOLECULE
6INL
57 59 1                 
SMALL
USER_CHARGES
@<TRIPOS>ATOM
1	  C1	-11.045	-10.189	-11.625	C.2	1	AJR900	0.000	
2	  N1	-11.366	-9.484	-10.511	N.2	1	AJR900	0.000	
3	  O1	-15.151	-5.280	-10.059	O.3	1	AJR900	0.000	
4	  C2	-11.948	-10.284	-12.679	C.2	1	AJR900	0.000	
5	  N2	-13.463	-8.876	-11.462	N.2	1	AJR900	0.000	
6	  O2	-10.193	-7.828	-7.343	O.3	1	AJR900	0.000	
7	  C3	-13.127	-9.588	-12.580	C.2	1	AJR900	0.000	
8	  N3	-11.885	-10.854	-13.913	N.2	1	AJR900	0.000	
9	  O3	-8.686	-14.490	-6.612	O.3	1	AJR900	0.000	
10	  C4	-12.561	-8.849	-10.458	C.2	1	AJR900	0.000	
11	  N4	-13.796	-9.805	-13.680	N.pl3	1	AJR900	0.000	
12	  C5	-13.045	-10.540	-14.507	C.2	1	AJR900	0.000	
13	  N5	-12.928	-8.141	-9.308	N.pl3	1	AJR900	0.000	
14	  C6	-15.096	-9.227	-14.072	C.3	1	AJR900	0.000	
15	  N6	-9.878	-10.743	-11.718	N.pl3	1	AJR900	0.000	
16	  C7	-15.012	-7.733	-14.381	C.3	1	AJR900	0.000	
17	  C8	-16.192	-9.458	-13.058	C.3	1	AJR900	0.000	
18	  C9	-12.179	-8.345	-8.090	C.3	1	AJR900	0.000	
19	 C10	-14.132	-7.305	-9.304	C.3	1	AJR900	0.000	
20	 C11	-13.950	-6.071	-10.175	C.3	1	AJR900	0.000	
21	 C12	-11.228	-7.179	-8.047	C.3	1	AJR900	0.000	
22	 C13	-8.815	-10.527	-10.701	C.3	1	AJR900	0.000	
23	 C14	-8.782	-11.580	-9.614	C.2	1	AJR900	0.000	
24	 C15	-8.504	-12.894	-9.932	C.2	1	AJR900	0.000	
25	 C16	-8.451	-13.888	-8.975	C.2	1	AJR900	0.000	
26	 C17	-8.701	-13.558	-7.621	C.2	1	AJR900	0.000	
27	 C18	-8.974	-12.240	-7.295	C.2	1	AJR900	0.000	
28	 C19	-9.037	-11.268	-8.285	C.2	1	AJR900	0.000	
29	 C20	-7.822	-15.632	-6.697	C.3	1	AJR900	0.000	
30	  H1	-13.351	-10.850	-15.485	 H	1	AJR900	0.000	
31	  H2	-15.407	-9.721	-14.993	 H	1	AJR900	0.000	
32	  H3	-14.828	-7.197	-13.486	 H	1	AJR900	0.000	
33	  H4	-15.924	-7.407	-14.808	 H	1	AJR900	0.000	
34	  H5	-14.221	-7.562	-15.064	 H	1	AJR900	0.000	
35	  H6	-17.050	-8.909	-13.347	 H	1	AJR900	0.000	
36	  H7	-15.899	-9.134	-12.097	 H	1	AJR900	0.000	
37	  H8	-16.441	-10.484	-13.028	 H	1	AJR900	0.000	
38	  H9	-12.842	-8.314	-7.224	 H	1	AJR900	0.000	
39	 H10	-11.663	-9.309	-8.078	 H	1	AJR900	0.000	
40	 H11	-14.999	-7.877	-9.642	 H	1	AJR900	0.000	
41	 H12	-14.346	-6.976	-8.285	 H	1	AJR900	0.000	
42	 H13	-13.090	-5.494	-9.829	 H	1	AJR900	0.000	
43	 H14	-13.788	-6.334	-11.221	 H	1	AJR900	0.000	
44	 H15	-15.911	-5.798	-10.380	 H	1	AJR900	0.000	
45	 H16	-10.898	-6.875	-9.043	 H	1	AJR900	0.000	
46	 H17	-11.637	-6.332	-7.492	 H	1	AJR900	0.000	
47	 H18	-9.739	-7.188	-6.775	 H	1	AJR900	0.000	
48	 H19	-9.650	-11.315	-12.519	 H	1	AJR900	0.000	
49	 H20	-7.862	-10.562	-11.225	 H	1	AJR900	0.000	
50	 H21	-8.889	-9.534	-10.254	 H	1	AJR900	0.000	
51	 H22	-8.309	-13.152	-10.966	 H	1	AJR900	0.000	
52	 H23	-8.232	-14.906	-9.274	 H	1	AJR900	0.000	
53	 H24	-9.180	-11.972	-6.266	 H	1	AJR900	0.000	
54	 H25	-9.246	-10.243	-8.009	 H	1	AJR900	0.000	
55	 H26	-7.725	-16.073	-5.739	 H	1	AJR900	0.000	
56	 H27	-6.867	-15.336	-7.047	 H	1	AJR900	0.000	
57	 H28	-8.245	-16.333	-7.367	 H	1	AJR900	0.000	
@<TRIPOS>BOND
1 1 2 2
2 1 4 1
3 4 7 2
4 5 7 1
5 4 8 1
6 2 10 1
7 5 10 2
8 7 11 1
9 8 12 2
10 11 12 1
11 10 13 1
12 11 14 1
13 1 15 1
14 14 16 1
15 14 17 1
16 13 18 1
17 13 19 1
18 3 20 1
19 19 20 1
20 6 21 1
21 18 21 1
22 15 22 1
23 22 23 1
24 23 24 2
25 24 25 1
26 9 26 1
27 25 26 2
28 26 27 1
29 23 28 1
30 27 28 2
31 9 29 1
32 12 30 1
33 14 31 1
34 16 32 1
35 16 33 1
36 16 34 1
37 17 35 1
38 17 36 1
39 17 37 1
40 18 38 1
41 18 39 1
42 19 40 1
43 19 41 1
44 20 42 1
45 20 43 1
46 3 44 1
47 21 45 1
48 21 46 1
49 6 47 1
50 15 48 1
51 22 49 1
52 22 50 1
53 24 51 1
54 25 52 1
55 27 53 1
56 28 54 1
57 29 55 1
58 29 56 1
59 29 57 1
@<TRIPOS>SUBSTRUCTURE
1	AJR900	1	GROUP	1 A	AJR
