@<TRIPOS>MOLECULE
BNZ
 12 12 0 0 0
SMALL
GASTEIGER

@<TRIPOS>ATOM
      1 C1          0.0000    1.3970    0.0000 C.ar    1  BNZ1       -0.1150
      2 C2          1.2098    0.6985    0.0000 C.ar    1  BNZ1       -0.1150
      3 C3          1.2098   -0.6985    0.0000 C.ar    1  BNZ1       -0.1150
      4 C4          0.0000   -1.3970    0.0000 C.ar    1  BNZ1       -0.1150
      5 C5         -1.2098   -0.6985    0.0000 C.ar    1  BNZ1       -0.1150
      6 C6         -1.2098    0.6985    0.0000 C.ar    1  BNZ1       -0.1150
      7 H1          0.0000    2.4810    0.0000 H       1  BNZ1        0.1150
      8 H2          2.1488    1.2405    0.0000 H       1  BNZ1        0.1150
      9 H3          2.1488   -1.2405    0.0000 H       1  BNZ1        0.1150
     10 H4          0.0000   -2.4810    0.0000 H       1  BNZ1        0.1150
     11 H5         -2.1488   -1.2405    0.0000 H       1  BNZ1        0.1150
     12 H6         -2.1488    1.2405    0.0000 H       1  BNZ1        0.1150
@<TRIPOS>BOND
     1     1     2   ar
     2     2     3   ar
     3     3     4   ar
     4     4     5   ar
     5     5     6   ar
     6     6     1   ar
     7     1     7    1
     8     2     8    1
     9     3     9    1
    10     4    10    1
    11     5    11    1
    12     6    12    1
@<TRIPOS>SUBSTRUCTURE
     1 BNZ1        1 TEMP              0 ****  ****    0 ROOT
